* 
*#SIMETRIX
V1 V1_P V1_N 180
X$V2 V2_P 0 PUL_SOURCE pinnames: P N params: _V1=0 _V2=1 _FREQ=10k _DELAY=0 _DRATIOx100=50 _T_RISE=100n _T_FALL=100n _DAMP_COEF=0 _PWIDTH=49.9u _OFF_UNTIL_DELAY=0 _IDLE_IN_POP=0 _USEPHASE=0 _PHASE=0 _SHOWPARAMS=0
R1 L1_N 0 90
R2 0 V1_N 10Meg
L1 D2_N L1_N 3m   
X$D1 V1_N D1_N hfa15tb60 pinnames: P N
X$D2 TX1_S1P D2_N hfa15tb60 pinnames: P N
X$D3 0 D2_N hfa15tb60 pinnames: P N
X$S1 TX1_P2N V1_N V2_P 0 gen_switch : RON=1  ROFF=1Meg VON=3  VOFF=2  pinnames: P N CP CN
C1 L1_N 0 167n   
X$TX1 D1_N V1_P V1_P TX1_P2N TX1_S1P 0 Ideal_TxTX1 pinnames: P1P P1N P2P P2N S1P S1N 
.subckt Ideal_TxTX1 P1P P1N P2P P2N S1P S1N 
L1 P1P P1N 10u 
L2 P2P P2N 10u 
L3 S1P S1N 10u 
K12 L1 L2 1 
K13 L1 L3 1 
K23 L2 L3 1 
.ends 

.GRAPH L1_N axisType="auto" persistence=-1 curveLabel="Tension de salida " analysis="tran|ac|dc" xLog="auto" yLog="auto"  nowarn=true disabled=false PROBEREF=Probe1  
