*1 SVPC-Series
*$
.SUBCKT 2R5SVPC2700M 1 2
C_C1         6 7  2682.6u  
C_C2         1 4  1765.9u
C_C3         1 3  900u
C_C4         1 9  5000u
C_C5         1 10 12000u
L_L1         8 2  5.63n   
L_L2         4 6  0.88n
L_L3         4 5  1.14n
R_R1         7 8  4.4m 
R_R2         1 7  1900
R_R3         1 4  14.2m
R_R4         4 6  107m
R_R5         3 4  1.5m
R_R6         9 3  5m
R_R7         5 6  18m
R_R8        10 9  25m
.ENDS
