***
*** myCapacitor_model.lb
***



.SUBCKT myCapacitor 1 2

V_xyz$R1 1 2 PWL NSEG=5
+ X0=0 Y0=0
+ X1=600u Y1=0
+ X2=650u Y2=3.14159
+ X3=675u Y3=1.414
+ X4=737u Y4=4.875
+ X5=1000u Y5=0

.ENDS myCapacitor
